*----------------------------------------------------------------------
* SPICE Netlist Generated by TDK Corporation
* Copyright(C) 2015 TDK Corporation.
* All Rights Reserved.
*----------------------------------------------------------------------
* TDK P/N: C3216X5R0J107M160AB (Multilayer Ceramic Chip Capacitor)
* Property: C=100uF
* Size(LxWxT): 3.2x1.6x1.6mm, 0.126x0.063x0.063inches
* Model Type: Precise Model
* Model Generated on June 29, 2015
*----------------------------------------------------------------------
* Terms and conditions regarding TDK Simulation Models:
* 1)This simulation model is being provided solely for informational
*   purposes. Please refer to the specifications of the products in
*   terms of detailed characteristics of such products.
* 2)In no event shall TDK Corporation of any of its subsidiaries be
*   liable for any loss or damage arising, directly or indirectly,
*   from any information contained in this simulation model, including,
*   but not limited to loss or damages arising from any inaccuracies,
*   omissions or errors in connection with such information.
* 3)Any and all copyrights on this simulation model are owned by
*   TDK Corporation.  Duplication or redistribution of this simulation
*   model without prior written permission from TDK Corporation
*   is prohibited.
* 4)This simulation model is subject to any modification or change
*   without any prior notice.
* 5)Neither TDK Corporation nor any of its subsidiaries shall make any
*   warranty, express or implied, including but not limited to the
*   correctness, implied warranties of merchantability and fitness for
*   a particular purpose with respect to this simulation models.
* 6)The use of this simulation model shall be deemed to have consented
*   to the terms and conditions hereof.
*----------------------------------------------------------------------
* External Node Assignments:
*
*  n1 ---| |--- n2
*
*----------------------------------------------------------------------
* Applicable Conditions:
*   Temperature = 25 degC
*   DC Bias Voltage = 0 V
*   Small Signal Operation
*----------------------------------------------------------------------
.SUBCKT C3216X5R0J107M160AB_p n1 n2
C1 n1 11 9.25804005E-05
C2 n1 12 3.08775816E-06
C3 n1 13 3.08775816E-06
C4 n1 14 3.08775816E-06
C5 n1 15 3.08775816E-06
C6 n1 16 3.08775816E-06
C7 n1 17 3.08775816E-06
L1 n2 21 7.50000000E-10
R1 11 21 1.71507619E-03
R2 11 12 1.40202338E+00
R3 11 13 9.42298922E+00
R4 11 14 6.32094432E+01
R5 11 15 4.23238349E+02
R6 11 16 2.82906845E+03
R7 11 17 1.88798733E+04
R8 n1 11 1.00000000E+06
.ENDS C3216X5R0J107M160AB_p
*----------------------------------------------------------------------
